powerflow/Codes/PF_Formulation/resultados_csv/19/caso_red/resultados_barras_SIN.csv
ID_Barra,Tipo_Barra,Tensao_Base_kV,Tensao_Mag_pu,Tensao_Ang_graus,P_Geracao_pu,Q_Geracao_pu,P_Carga_pu,Q_Carga_pu,Desvio_Tensao_QLIM_pu,Corte_Reativo_VLIM_pu,Corte_Ativo_DERA_pu,Corte_Reativo_DERA_pu
5001,1,500.0,1.0789780394682098,-2.111670589380781,0.0,0.0,0.0,0.0,0.0,-2.786199360686624e-10,0.0,0.0
5002,1,34.5,1.0004845834392804,20.338147083817933,0.0,0.0,0.0,0.0,0.0,-1.8553964804107832e-10,0.0,0.0
5003,1,230.0,1.0158414148014572,-2.219421516228903,0.0,0.0,0.0,0.0,0.0,-2.758130105344121e-10,0.0,0.0
5004,1,230.0,1.0250321028039855,-2.569433520012545,0.0,0.0,0.0,0.0,0.0,-2.886510031490377e-10,0.0,0.0
5005,1,992.0,1.0459511249275384,-2.569433520012545,0.0,0.0,0.0,0.0,0.0,1.8892338689070423e-9,0.0,0.0
5006,2,992.0,1.0000313198087665,-2.569433520012545,0.0,0.0,0.0,0.0,0.0,0.0,0.0,0.0
5008,1,34.5,1.0017218085007338,20.40561247288191,0.0,0.0,0.0,0.0,0.0,-1.6221541132428546e-10,0.0,0.0
5009,2,992.0,1.0366786557772016,-2.219421516228903,0.0,0.0,0.0,0.0,0.0,0.0,0.0,0.0
5010,2,992.0,1.036678655780948,-2.219421516228903,0.0,0.0,0.0,0.0,0.0,0.0,0.0,0.0
5011,2,992.0,1.0365728722463847,-2.219421516228903,0.0,0.0,0.0,0.0,0.0,0.0,0.0,0.0
5012,2,992.0,1.0366786557838576,-2.219421516228903,0.0,0.0,0.0,0.0,0.0,0.0,0.0,0.0
5013,2,992.0,1.036572872246385,-2.219421516228903,0.0,0.0,0.0,0.0,0.0,0.0,0.0,0.0
5014,2,992.0,1.036572872246385,-2.219421516228903,0.0,0.0,0.0,0.0,0.0,0.0,0.0,0.0
5015,2,992.0,0.9891347758534148,-2.219421516228903,0.0,0.0,0.0,0.0,0.0,0.0,0.0,0.0
5016,2,992.0,0.9980838391470161,-2.569433520012545,0.0,0.0,0.0,0.0,0.0,0.0,0.0,0.0
5019,1,138.0,1.0007139126670257,18.50735061678058,0.0,0.0,0.0,0.0,0.0,-2.0387465996500436e-10,0.0,0.0
5020,1,34.5,0.9968915247778638,11.378233703148297,0.0,0.0,0.0,0.0,0.0,-7.66433304684246e-10,0.0,0.0
5021,1,230.0,1.0067289851635803,-22.26152206641422,0.0,0.0,0.0,0.0,0.0,6.139754068270958e-11,0.0,0.0
5022,2,34.5,1.047325492880049,3.0730598324835303,11.19,-0.12105214264244418,0.0,0.0,0.0,0.0,0.0,0.0
5028,1,230.0,1.0250621565887543,-2.5697521225700557,0.0,0.0,0.0,0.0,0.0,-2.8291181328229316e-10,0.0,0.0
5029,1,230.0,1.0158711991169054,-2.2197401187890753,0.0,0.0,0.0,0.0,0.0,-2.790581619460573e-10,0.0,0.0
5030,2,992.0,0.9891637771342802,-2.2197401187890753,0.0,0.0,0.0,0.0,0.0,0.0,0.0,0.0
5031,1,992.0,0.9891637771732628,-2.2197401187890753,0.0,0.0,0.0,0.0,0.0,-3.2817245702957014e-10,0.0,0.0
5032,2,992.0,0.9981131028128087,-2.5697521225700557,0.0,0.0,0.0,0.0,0.0,0.0,0.0,0.0
5033,1,992.0,0.9981131028470659,-2.5697521225700557,0.0,0.0,0.0,0.0,0.0,-2.910007691462334e-10,0.0,0.0
5034,1,34.5,1.001722012731459,23.094845609748468,0.0,0.0,0.0,0.0,0.0,-6.715954555496843e-10,0.0,0.0
5035,1,230.0,1.0153802550703648,18.91906111772388,0.0,0.0,0.0,0.0,0.0,-6.646167924597759e-10,0.0,0.0
5036,1,34.5,0.999412182369933,20.36811745532542,0.0,0.0,0.0,0.0,0.0,6.946295914665884e-9,0.0,0.0
5037,1,230.0,1.0192616433177162,6.456658635092955,0.0,0.0,0.0,0.0,0.0,-2.407008500354723e-10,0.0,0.0
5038,1,34.5,0.9881662834257117,8.039704071563131,0.0,0.0,0.0,0.0,0.0,-5.684860120905554e-10,0.0,0.0
5039,1,34.5,0.9851843944470527,9.439088119441141,0.0,0.0,0.0,0.0,0.0,-7.097484983588946e-10,0.0,0.0
5040,1,34.5,0.972463895997287,10.654397407648107,0.0,0.0,-0.18600000000000003,0.158,0.0,-8.291819765780248e-10,0.0,0.0
5041,1,230.0,1.0478739626355835,18.352115231534032,0.0,0.0,0.0,0.0,0.0,6.8220794468683425e-9,0.0,0.0
5042,1,34.5,1.0429544734479743,20.029766887080324,0.0,0.0,0.0,0.0,0.0,8.720019562275246e-9,0.0,0.0
5043,1,34.5,0.9978103941409378,20.29853270865119,0.0,0.0,0.0,0.0,0.0,6.926717028956909e-9,0.0,0.0
5044,1,34.5,1.0419596009233896,21.127185209305015,0.0,0.0,-0.29600000000000004,0.0538,0.0,9.153290352846957e-9,0.0,0.0
5045,1,230.0,1.0059175832844616,-13.600357598471769,0.0,0.0,0.0,0.0,0.0,-2.993310532500641e-10,0.0,0.0
5046,1,34.5,1.0000393887609287,-12.363510322811443,0.0,0.0,0.0,0.0,0.0,-3.4051927271924184e-10,0.0,0.0
5047,1,34.5,1.0040852880210211,-12.776985466014597,0.0,0.0,0.0,0.0,0.0,-2.8952900067790556e-10,0.0,0.0
5048,1,34.5,0.998881501527376,-11.598224279815588,0.0,0.0,-0.109,0.0555,0.0,-2.991052116919967e-10,0.0,0.0
5049,1,69.0,1.002937956364432,-17.478615965949835,0.0,0.0,0.0,0.0,0.0,-3.301954078400219e-10,0.0,0.0
5050,1,500.0,1.0815273989887622,-1.268898142083,0.0,0.0,0.0,0.0,0.0,-4.469073563794288e-10,0.0,0.0
5051,2,992.0,1.0429369046194195,3.6589368039989543,2.3,-0.21091209890894677,0.0,0.0,0.0,0.0,0.0,0.0
5054,2,992.0,1.0429369046194195,3.6589368039989543,2.3,-0.21091209890894677,0.0,0.0,0.0,0.0,0.0,0.0
5057,1,69.0,1.002752020174144,-17.43585512736884,0.0,0.0,0.0,0.0,0.0,-3.26106276861076e-10,0.0,0.0
5058,1,34.5,0.9996640559618769,-16.33306112029948,0.0,0.0,0.0,0.0,0.0,-3.4646243081165736e-10,0.0,0.0
5059,1,34.5,0.999983559963275,-16.633736492112398,0.0,0.0,0.0,0.0,0.0,-3.3604363943756463e-10,0.0,0.0
5060,1,500.0,1.069397259659511,-5.351842034605149,0.0,0.0,0.0,0.0,0.0,-6.968956615235083e-11,0.0,0.0
5061,3,992.0,1.0404005038091266,0.0,12.14919990543223,0.20402897528969666,0.0,0.0,0.0,0.0,0.0,0.0
5067,1,34.5,0.9991830807666454,-15.662924659693527,0.0,0.0,-0.06,0.00885,0.0,-3.506159876551789e-10,0.0,0.0
5068,1,13.8,1.0152283045951929,17.17862944324043,0.0,0.0,0.0,0.0,0.0,-2.6217715729608987e-8,0.0,0.0
5069,1,991.0,1.0152282971835749,17.17862944324043,0.0,0.0,0.0,0.0,0.0,-2.6211353189541673e-8,0.0,0.0
5071,1,230.0,1.0124338948777678,15.720164033943304,0.0,0.0,0.0,0.0,0.0,-2.5992543594425355e-8,0.0,0.0
5073,1,69.0,1.0156095374951837,17.05833419882136,0.0,0.0,0.032,0.015,0.0,-2.6196211687964275e-8,-8.181828131633107e-9,-3.835231936703019e-9
5075,1,34.5,1.0076511516131,19.57712806456272,0.0,0.0,-0.12,0.044500000000000005,0.0,-2.6753780590645972e-8,0.0,0.0
5078,1,34.5,0.9996512560322733,21.91009613799829,0.0,0.0,-0.315,0.0463,0.0,7.0366969725496315e-9,0.0,0.0
5079,1,34.5,1.0086247593400748,19.772374850899237,0.0,0.0,-0.1,0.038,0.0,-2.6578818298354012e-8,0.0,0.0
5081,1,230.0,1.0084412450021465,4.583241851041391,0.0,0.0,0.0,0.0,0.0,-1.0266647726402962e-9,0.0,0.0
5083,1,69.0,1.0018603088785807,1.773256810718754,0.0,0.0,1.7310000000000003,0.37799999999999995,0.0,-1.0434404324073765e-9,-8.181819738154204e-9,-1.7866712079851462e-9
5090,1,500.0,1.0935907672009064,-1.9948324459919722,0.0,0.0,0.0,0.0,0.0,-3.815900116536773e-10,0.0,0.0
5091,1,230.0,1.0045953336971265,-2.951313821835873,0.0,0.0,0.0,0.0,0.0,-3.876669774302009e-10,0.0,0.0
5092,1,230.0,1.0016367097755206,-3.196236626026326,0.0,0.0,0.0,0.0,0.0,-4.0257729806706387e-10,0.0,0.0
5093,1,69.0,1.0059321717152119,-4.300329825548396,0.0,0.0,0.335,0.133,0.0,-3.917424050178734e-10,-8.181817733511275e-9,-3.248303756886566e-9
5096,1,991.0,1.02143244763687,4.70625827593107,0.0,0.0,0.0,0.0,0.0,-1.6513672095960608e-10,0.0,0.0
5097,1,13.8,1.0214324476550316,4.70625827593107,0.0,0.0,0.0,0.0,0.0,-1.67458502285571e-10,0.0,0.0
5098,1,230.0,1.0032244898742004,-2.5952633209583884,0.0,0.0,0.0,0.0,0.0,-4.216364483728835e-10,0.0,0.0
5099,1,69.0,1.0107117808558488,-4.469117787724904,0.0,0.0,0.415,0.171,0.0,-3.8173714413408424e-10,-8.181817731875028e-9,-3.3713032100015176e-9
5100,1,500.0,1.0870384443775252,-2.498947809862227,0.0,0.0,0.0,0.0,0.0,-3.377948978524078e-10,0.0,0.0
5101,1,230.0,1.0053549571541758,-3.191457295913657,0.0,0.0,0.0,0.0,0.0,-3.390465723049999e-10,0.0,0.0
5102,1,991.0,1.005898469075859,-3.950348031651686,0.0,0.0,0.0,0.0,0.0,-3.1956868790247983e-10,0.0,0.0
5103,1,69.0,1.006206635574437,-3.9218705831338494,0.0,0.0,-0.004,0.0,0.0,-3.2054714722784673e-10,0.0,0.0
5104,1,13.8,1.0058984691633954,-3.950348031651686,0.0,0.0,0.0,0.0,0.0,-3.2606069884916856e-10,0.0,0.0
5106,1,13.8,1.002720099034079,-4.316222733723801,0.0,0.0,0.009999999999999998,0.005,0.0,-2.538536724207178e-10,-9.090867605124437e-10,-4.5454338025622196e-10
5110,1,230.0,0.9832024672717783,-10.163369633914192,0.0,0.0,0.0,0.0,0.0,-3.105027343771859e-10,0.0,0.0
5111,1,230.0,1.002680098266848,-8.276904935703184,0.0,0.0,0.0,0.0,0.0,-2.7984545580317934e-10,0.0,0.0
5113,1,69.0,1.0121271888350203,-9.32032855273271,0.0,0.0,0.535,0.353,0.0,-2.59806596304583e-10,-8.18181782157634e-9,-5.398470450498033e-9
5115,1,13.8,1.0037977236719844,-16.54732878108374,0.0,0.0,0.512,0.128,0.0,-2.695755200133662e-10,-9.090818355168869e-10,-2.2727045887922172e-10
5116,1,13.8,1.010184242358566,-16.469720856361178,0.0,0.0,0.512,0.128,0.0,-2.7628323835130037e-10,-9.090818325663707e-10,-2.2727045814159267e-10
5117,1,13.8,1.0105514104649151,-15.167973167233471,0.0,0.0,0.512,0.128,0.0,-2.764097170854913e-10,-9.090818569669466e-10,-2.2727046424173665e-10
5118,1,13.8,1.003848452010407,-16.54732878108374,0.0,0.0,0.0,0.0,0.0,-1.5785472660099899e-10,0.0,0.0
5119,1,13.8,1.0102353018901697,-16.469720856361178,0.0,0.0,0.0,0.0,0.0,-3.70229915382889e-10,0.0,0.0
5120,1,13.8,1.010566723054986,-15.167973167233471,0.0,0.0,0.0,0.0,0.0,-3.004857894791996e-10,0.0,0.0
5121,1,230.0,0.9748844614643744,-1.7618587888436241,0.0,0.0,0.0,0.0,0.0,3.152215131761578e-10,0.0,0.0
5123,1,69.0,1.0019399014531725,-4.5522030860229705,0.0,0.0,1.6410000000000002,0.888,0.0,3.5279564621375566e-10,-8.18181711097133e-9,-4.4274549631581605e-9
5124,1,34.5,1.0018845580437474,20.788484121966807,0.0,0.0,-0.132,0.0025700000000000002,0.0,-1.893967685388887e-10,0.0,0.0
5126,1,34.5,0.9982388886596907,21.5580177731793,0.0,0.0,-0.327,0.0604,0.0,7.025689233615503e-9,0.0,0.0
5127,1,34.5,1.0050115700030526,22.428248587495524,0.0,0.0,-0.218,0.0168,0.0,-1.2771260566201952e-10,0.0,0.0
5128,1,230.0,1.0041849954056494,16.6263429951352,0.0,0.0,0.0,0.0,0.0,-2.0051440366003812e-10,0.0,0.0
5131,1,230.0,1.005076736847424,-7.766956809238972,0.0,0.0,0.0,0.0,0.0,-4.275037906368578e-10,0.0,0.0
5132,1,69.0,0.999027719544778,-5.265811350624573,0.0,0.0,0.023999999999999994,-0.013999999999999999,0.0,-4.800222088903719e-10,-8.18181758954932e-9,4.772726927237105e-9
5133,1,69.0,1.0063062593164376,-10.108484908152441,0.0,0.0,1.3869999999999998,0.447,0.0,-4.107610853031677e-10,-8.181817587805303e-9,-2.6368222507202385e-9
5134,2,992.0,1.0063062593164376,-10.108484908152441,0.0,0.0,0.0,0.0,0.0,0.0,0.0,0.0
5135,1,991.0,1.009568112031327,-8.09262737763666,0.0,0.0,0.0,0.0,0.0,-4.395483503896232e-10,0.0,0.0
5136,1,13.8,1.009568112168455,-8.092627377836324,0.0,0.0,0.0,0.0,0.0,-4.467676322497456e-10,0.0,0.0
5137,1,991.0,1.010374906454953,-8.069657159552671,0.0,0.0,0.0,0.0,0.0,-4.403439332700946e-10,0.0,0.0
5138,1,13.8,1.0103749065887362,-8.069657159552671,0.0,0.0,0.0,0.0,0.0,-4.473348781746393e-10,0.0,0.0
5139,1,991.0,1.0205785240292742,-10.077569700337653,0.0,0.0,0.0,0.0,0.0,-3.000191417232102e-10,0.0,0.0
5140,1,500.0,1.041541175821727,-5.824950342977037,0.0,0.0,0.0,0.0,0.0,-3.9756447043116694e-10,0.0,0.0
5141,1,230.0,1.00969894905147,-6.753493250535739,0.0,0.0,0.0,0.0,0.0,-4.207505709685735e-10,0.0,0.0
5142,1,230.0,1.0113765859607153,-6.63472122076054,0.0,0.0,0.0,0.0,0.0,-4.3510531239263156e-10,0.0,0.0
5143,1,13.8,1.0205785241191285,-10.077569700472127,0.0,0.0,0.0,0.0,0.0,-3.0634257127100796e-10,0.0,0.0
5144,1,991.0,0.9574238923703299,-6.753493250535739,0.0,0.0,0.0,0.0,0.0,-4.235962428146445e-10,0.0,0.0
5145,2,990.0,1.032599391454141,-6.753493250535739,0.0,0.9375141860652357,0.0,0.0,0.0,0.0,0.0,0.0
5146,1,991.0,1.020665882654035,-10.096998405097658,0.0,0.0,0.0,0.0,0.0,-2.9981938900328446e-10,0.0,0.0
5147,2,990.0,1.032599391454141,-6.753493250535739,0.0,0.9375141860652357,0.0,0.0,0.0,0.0,0.0,0.0
5148,1,13.8,1.0206658827436073,-10.096998405232013,0.0,0.0,0.0,0.0,0.0,-3.061229728723422e-10,0.0,0.0
5149,1,34.5,0.9955889013023641,-1.4406572800884594,0.0,0.0,0.0,0.0,0.0,-4.835409963969238e-10,0.0,0.0
5150,1,230.0,1.0055149274983828,-7.707012300339535,0.0,0.0,0.0,0.0,0.0,-4.121938163481433e-10,0.0,0.0
5151,2,992.0,1.0095531400586173,-7.707012300339535,0.0,0.0,0.0,0.0,0.0,0.0,0.0,0.0
5152,1,230.0,0.996923968574476,-7.989660579452841,0.0,0.0,0.0,0.0,0.0,-4.6032787536099227e-10,0.0,0.0
5154,2,992.0,1.0095531400586173,-7.707012300339535,0.0,0.0,0.0,0.0,0.0,0.0,0.0,0.0
5155,1,230.0,1.006459144003759,-1.7649372003035642,0.0,0.0,0.0,0.0,0.0,-3.83963515574783e-10,0.0,0.0
5156,1,69.0,1.0175008687354452,-20.927735913407812,0.0,0.0,3.693,0.599,0.0,-4.998055235990786e-10,-8.181817524908532e-9,-1.3270806112700272e-9
5157,1,13.8,1.006732086358006,-9.720170141157924,0.0,0.0,0.0,0.0,0.0,-4.237552678985301e-10,0.0,0.0
5158,1,13.8,0.9985467642676205,-10.852264970267177,0.0,0.0,0.12200000000000001,0.049,0.0,-4.396255062521264e-10,-9.090752891771804e-10,-3.6512040303017905e-10
5159,1,13.8,1.0063127291993825,-9.458181619079141,0.0,0.0,0.0,0.0,0.0,-4.133823153111158e-10,0.0,0.0
5160,1,13.8,0.9995106269965642,-10.357774961481999,0.0,0.0,0.09699999999999999,0.040999999999999995,0.0,-4.220704052788926e-10,-9.09075475450687e-10,-3.842483968399811e-10
5162,1,230.0,0.9916548402221907,-6.526696517152198,0.0,0.0,0.0,0.0,0.0,-4.280806530438813e-10,0.0,0.0
5164,1,991.0,1.0292337377657819,-7.995995004107652,0.0,0.0,0.0,0.0,0.0,-4.573885706994684e-10,0.0,0.0
5165,1,13.8,1.0292337377644933,-7.995995004135604,0.0,0.0,0.0,0.0,0.0,-4.5733211297286515e-10,0.0,0.0
5166,1,13.8,0.9955378961757092,-11.623775773332756,0.0,0.0,0.143,0.053,0.0,-5.143787192684667e-10,-9.090751330999191e-10,-3.369299444356343e-10
5167,1,34.5,1.0015557354307267,-0.6056283919745316,0.0,0.0,0.0,0.0,0.0,-3.882306054485097e-10,0.0,0.0
5168,1,138.0,0.9972589322611917,17.404851911467333,0.0,0.0,0.0,0.0,0.0,-2.1744851815246993e-10,0.0,0.0
5169,1,138.0,0.9819745918704901,17.824419174814675,0.0,0.0,0.0,0.0,0.0,-2.078420817006656e-10,0.0,0.0
5170,1,34.5,1.0012011982228382,23.955135501092872,0.0,0.0,-0.792,0.0978,0.0,-6.648398699070121e-10,0.0,0.0
5176,1,500.0,1.0901537666731063,5.365158040567008,0.0,0.0,0.0,0.0,0.0,-3.354530517085559e-10,0.0,0.0
5178,2,992.0,0.9792585712050309,-4.74459956673247,0.0,0.0,0.0,0.0,0.0,0.0,0.0,0.0
5180,1,500.0,1.0988552457608924,-2.2780030775825364,0.0,0.0,0.0,0.0,0.0,-4.0653192961096626e-10,0.0,0.0
5181,1,230.0,0.9792582615043837,-4.744596005221855,0.0,0.0,0.8,0.233,0.0,-4.314139741350508e-10,-8.181817430102801e-9,-2.382954326517441e-9
5183,1,69.0,1.0036656344541577,-7.018028431940071,0.0,0.0,1.2990000000000002,0.48,0.0,-4.3610090301708716e-10,-8.181817422883012e-9,-3.0233043594948764e-9
5184,1,230.0,0.9792585712050309,-4.74459956673247,0.0,0.0,0.0,0.0,0.0,-4.3351401048374873e-10,0.0,0.0
5191,1,230.0,0.9890940030657717,-6.514120726265276,0.0,0.0,0.0,0.0,0.0,-4.260367867776777e-10,0.0,0.0
5193,1,69.0,1.0229906445898092,-13.820985805128535,0.0,0.0,1.9969999999999999,0.743,0.0,-4.425247540022087e-10,-8.181817470477603e-9,-3.0441113573184074e-9
5196,1,13.8,1.0221170367073318,-13.9539678782368,0.0,0.0,-0.079,-0.002526,0.0,-4.4310619615586144e-10,0.0,0.0
5199,1,991.0,1.021972206713504,-14.228477955635373,0.0,0.0,0.0,0.0,0.0,-4.419021004998871e-10,0.0,0.0
5200,1,500.0,1.096653176814747,5.044783937327906,0.0,0.0,0.0,0.0,0.0,-1.2149229090247827e-9,0.0,0.0
5201,1,230.0,0.9951568237578983,-4.580659504409473,0.0,0.0,0.0,0.0,0.0,-4.296906974391802e-10,0.0,0.0
5202,1,230.0,0.9895126926812895,3.913618768957135,0.0,0.0,0.0,0.0,0.0,-1.4068368303908747e-9,0.0,0.0
5203,1,69.0,1.012120341247834,-6.241513584858332,0.0,0.0,0.0,0.0,0.0,-4.162771745480425e-10,0.0,0.0
5204,1,13.8,1.0137478657791223,-6.320868392923539,0.0,0.0,0.0,0.0,0.0,-2.235736199162802e-10,0.0,0.0
5205,2,990.0,1.018303761387143,-6.320868392923539,0.0,0.017673469082414645,0.0,0.0,0.0,0.0,0.0,0.0
5206,1,13.8,1.0117529202997113,-6.3233404077913535,0.0,0.0,0.0,0.0,0.0,-3.612534894305871e-10,0.0,0.0
5207,1,991.0,1.0114117760395722,-6.320868392923539,0.0,0.0,0.0,0.0,0.0,-4.2519850865533424e-10,0.0,0.0
5208,1,991.0,1.0117529202192657,-6.3233404077913535,0.0,0.0,0.0,0.0,0.0,-4.1831624139998877e-10,0.0,0.0
5209,1,13.8,1.0117529203629874,-6.3233404077913535,0.0,0.0,0.0,0.0,0.0,-2.4388487708850913e-10,0.0,0.0
5211,1,230.0,0.9951277643667644,-4.2741060015477546,0.0,0.0,0.0,0.0,0.0,-1.1699084224963357e-9,0.0,0.0
5212,1,230.0,0.9947187822482606,-4.337567075021121,0.0,0.0,0.0,0.0,0.0,-1.1453819047622548e-9,0.0,0.0
5213,1,69.0,1.0217807761279554,-9.402550672170172,0.0,0.0,2.952,0.971,0.0,-1.1987966866461592e-9,-8.181817430897735e-9,-2.6912414381442076e-9
5214,1,991.0,1.021025906123671,-9.642434710482432,0.0,0.0,0.0,0.0,0.0,-1.198946047654235e-9,0.0,0.0
5215,1,13.8,1.0210259062814504,-9.642434710482432,0.0,0.0,0.0,0.0,0.0,-1.2017660794545286e-9,0.0,0.0
5216,1,230.0,0.992172622683924,3.0511951810996236,0.0,0.0,0.0,0.0,0.0,2.9999696738603176e-10,0.0,0.0
5218,2,992.0,0.9951278240746686,-4.274107720428013,0.0,0.0,0.0,0.0,0.0,0.0,0.0,0.0
5219,2,992.0,0.9951278240746686,-4.274107720428013,0.0,0.0,0.0,0.0,0.0,0.0,0.0,0.0
5220,2,992.0,0.9925215569863547,3.2153167731966983,0.0,0.0,0.0,0.0,0.0,0.0,0.0,0.0
5222,1,230.0,0.9925215569863547,3.2153167731966983,0.0,0.0,0.0,0.0,0.0,2.2796148790521863e-10,0.0,0.0
5226,1,69.0,1.007454571171215,1.5369200697015417,0.0,0.0,-0.23600000000000002,-0.001,0.0,2.5668384058383703e-10,0.0,0.0
5231,1,13.8,0.9947390223998605,3.678945244007467,0.0,0.0,0.0,0.0,0.0,-4.020877745494289e-6,0.0,0.0
5232,2,990.0,1.0395435189363866,3.67057776980597,0.0,0.1999870712888906,0.0,0.0,0.0,0.0,0.0,0.0
5235,1,138.0,0.9964901667492437,4.034742916636358,0.0,0.0,0.0,0.0,0.0,-7.114450901965256e-6,0.0,0.0
5236,1,991.0,0.9947386731586731,3.678945244007467,0.0,0.0,0.0,0.0,0.0,-4.020878291802972e-6,0.0,0.0
5237,1,991.0,1.0047944719573587,3.67057776980597,0.0,0.0,0.0,0.0,0.0,-3.846812746935733e-6,0.0,0.0
5238,1,13.8,1.0166217415233765,3.67057776980597,0.0,0.0,0.0,0.0,0.0,-3.7306056177380777e-6,0.0,0.0
5239,1,991.0,0.9810192530324257,3.2153167731966983,0.0,0.0,0.0,0.0,0.0,-3.2604569368129674e-7,0.0,0.0
5240,2,992.0,1.0019803506521234,9.68654275808214,0.0,0.0,0.0,0.0,0.0,0.0,0.0,0.0
5241,1,230.0,1.0295340758315348,10.925649400969395,0.0,0.0,0.0,0.0,0.0,-9.042184483194625e-9,0.0,0.0
5242,2,992.0,1.0019803506521234,9.68654275808214,0.0,0.0,0.0,0.0,0.0,0.0,0.0,0.0
5243,1,69.0,1.0372042099734629,8.088663460839264,0.0,0.0,1.6480000000000001,0.040999999999999995,0.0,-8.826612853713675e-9,-8.181822711588774e-9,-2.0355262814025465e-10
5245,1,230.0,1.0317092010686222,11.152852739556202,0.0,0.0,0.0,0.0,0.0,-7.1930696896833366e-9,0.0,0.0
5246,1,69.0,1.001730814576926,9.690856299397847,0.0,0.0,1.014,0.08,0.0,-7.217258994505485e-9,-8.181822081562233e-9,-6.455086454881445e-10
5247,1,991.0,1.0061997711894497,1.4428044266723021,0.0,0.0,0.0,0.0,0.0,2.5869013906578363e-10,0.0,0.0
5248,1,13.8,1.0061997711731567,1.4428044266723021,0.0,0.0,0.0,0.0,0.0,2.57161494094134e-10,0.0,0.0
5249,1,138.0,0.9500033876088608,1.5244949267536838,0.0,0.0,0.0,0.0,0.0,-2.183341609186449e-5,0.0,0.0
5252,1,138.0,1.046127524235797,9.554391623827728,0.0,0.0,0.0,0.0,0.0,-3.995766644464451e-7,0.0,0.0
5253,1,69.0,1.0230239392993539,7.925909721163403,0.0,0.0,0.0,0.0,0.0,-4.047411340181131e-7,0.0,0.0
5254,1,230.0,1.008604789857408,12.46361102425914,0.0,0.0,0.0,0.0,0.0,-3.503804381749305e-8,0.0,0.0
5255,1,138.0,1.0499994376743667,10.118802093236129,0.0,0.0,0.0,0.0,0.0,-6.277769494199062e-8,0.0,0.0
5256,1,13.8,1.0230240969948683,7.925909721163403,0.0,0.0,0.0,0.0,0.0,-4.043265951937386e-7,0.0,0.0
5257,1,69.0,1.001944319249705,9.687011342711093,0.0,0.0,0.0,0.0,0.0,-7.202439722249012e-9,0.0,0.0
5258,1,69.0,1.0019803506521234,9.68654275808214,0.0,0.0,0.0,0.0,0.0,-7.192168879929514e-9,0.0,0.0
5259,1,13.8,1.0064747672261478,1.4643423141674952,0.0,0.0,0.0,0.0,0.0,2.565926798649584e-10,0.0,0.0
5262,1,230.0,1.0135640696279773,15.844654962553523,0.0,0.0,0.0,0.0,0.0,-2.6087951378310556e-8,0.0,0.0
5263,1,69.0,1.006848662215414,15.5839415722704,0.0,0.0,0.34900000000000003,0.01,0.0,-2.6211468392161083e-8,-8.181828767718572e-9,-2.3443635437589033e-10
5264,1,991.0,1.0064747672435859,1.4643423141674952,0.0,0.0,0.0,0.0,0.0,2.5822900357062374e-10,0.0,0.0
5265,1,13.8,1.009404180623934,15.839285148043283,0.0,0.0,0.0,0.0,0.0,-2.6100844801742148e-8,0.0,0.0
5267,1,13.8,1.009404180623943,15.839285148043283,0.0,0.0,0.0,0.0,0.0,-2.610084480174215e-8,0.0,0.0
5268,1,991.0,1.0094041693189586,15.839285148043283,0.0,0.0,0.0,0.0,0.0,-2.6090645186151367e-8,0.0,0.0
5269,1,991.0,1.0094041693189677,15.839285148043283,0.0,0.0,0.0,0.0,0.0,-2.609064518615138e-8,0.0,0.0
5271,1,230.0,0.994340252176577,-4.328520402367529,0.0,0.0,0.0,0.0,0.0,-1.1182304613426725e-9,0.0,0.0
5272,1,991.0,1.0242903107334054,-3.8210535100338716,0.0,0.0,0.0,0.0,0.0,-1.1176887112320247e-9,0.0,0.0
5273,1,69.0,1.0130290217512032,-6.65549302577724,0.0,0.0,1.963,0.7390000000000001,0.0,-1.1243294203715545e-9,-8.18181744106449e-9,-3.0801645893767995e-9
5274,1,13.8,1.0242903109530657,-3.821053510309546,0.0,0.0,0.0,0.0,0.0,-1.1217819979440213e-9,0.0,0.0
5276,1,991.0,1.038035950883541,7.874123970866146,0.0,0.0,0.0,0.0,0.0,-8.806383106581768e-9,0.0,0.0
5277,1,13.8,1.0380359515407063,7.874123970866146,0.0,0.0,0.0,0.0,0.0,-8.80776399035507e-9,0.0,0.0
5281,1,230.0,0.9956100446188557,-7.114965039175068,0.0,0.0,0.0,0.0,0.0,-4.5456008278401467e-10,0.0,0.0
5283,1,69.0,1.0070511514377474,-9.851530464309931,0.0,0.0,1.6059999999999999,0.565,0.0,-4.5628662678680364e-10,-8.181817578873125e-9,-2.8784102939373078e-9
5285,1,13.8,1.0230009534432194,6.713371917915012,0.0,0.0,0.0,0.0,0.0,-1.1745054672198003e-9,0.0,0.0
5286,1,991.0,1.0230009532096387,6.713371918429365,0.0,0.0,0.0,0.0,0.0,-1.1703030266229533e-9,0.0,0.0
5287,1,991.0,1.0063108627613948,5.332462567503056,0.0,0.0,0.0,0.0,0.0,-2.2418155670749744e-10,0.0,0.0
5288,1,13.8,1.0063108628195438,5.332462567503056,0.0,0.0,0.0,0.0,0.0,-2.3026929682931544e-10,0.0,0.0
5291,1,230.0,1.0045279668248273,-12.723016155980451,0.0,0.0,0.0,0.0,0.0,-4.260230867872524e-12,0.0,0.0
...
